16
NAME
C	0.000000	0.000000	0.000000
C	1.501500	0.000000	0.000000
C	2.124586	-1.249679	0.000000
C	3.505341	-1.350625	-0.039356
C	4.286574	-0.200015	-0.069860
C	2.294030	1.148357	-0.029547
C	3.678883	1.048750	-0.061560
O	-0.614767	-1.038823	0.000000
N	-0.686598	1.231608	-0.086289
H	-0.006612	1.986944	-0.139209
H	-1.050916	1.301050	-1.035722
H	1.492283	-2.129387	0.026672
H	3.975850	-2.327843	-0.044194
H	5.368298	-0.276293	-0.098935
H	1.854296	2.140633	-0.018888
H	4.283289	1.949010	-0.080726
